* posnew_tmp

* Generated by: xspice 3.08 23-May-2016
* Date: 11-Jan-2018 11:56:03
* Path: /home/michaelkraaije/epo3git/epo3biem/test
* Language: SPICE

.subckt Posnew 1 2 3 4 5 6 7 8 9 10 11 12 13 14 15 16 17
*
*   1 pbulk        2 nbulk        3 position_new_5_0_5
*   4 position_new_5_0_4          5 position_old_5_0_4
*   6 position_new_5_0_3          7 position_old_5_0_3
*   8 position_new_5_0_1          9 position_new_5_0_0
*  10 position_old_5_0_0         11 button      12 vss         13 vdd
*  14 position_old_5_0_5         15 position_old_5_0_2
*  16 position_new_5_0_2         17 position_old_5_0_1
*
m1 115 11 12 2 nenh w=23.2u l=1.6u
m2 122 11 13 1 penh w=29.6u l=1.6u
m3 109 115 13 1 penh w=29.6u l=1.6u
m4 109 115 12 2 nenh w=23.2u l=1.6u
m5 12 57 121 2 nenh w=23.2u l=1.6u
m6 13 57 121 1 penh w=29.6u l=1.6u
m7 9 109 13 1 penh w=29.6u l=1.6u
m8 120 109 12 2 nenh w=23.2u l=1.6u
m9 12 10 115 2 nenh w=23.2u l=1.6u
m10 115 10 122 1 penh w=29.6u l=1.6u
m11 117 13 109 1 penh w=29.6u l=1.6u
m12 117 12 109 2 nenh w=23.2u l=1.6u
m13 119 121 12 2 nenh w=23.2u l=1.6u
m14 118 121 13 1 penh w=29.6u l=1.6u
m15 13 68 9 1 penh w=29.6u l=1.6u
m16 9 68 120 2 nenh w=23.2u l=1.6u
m17 12 12 12 2 nenh w=23.2u l=1.6u
m18 13 13 115 1 penh w=29.6u l=1.6u
m19 13 109 117 1 penh w=29.6u l=1.6u
m20 12 109 117 2 nenh w=23.2u l=1.6u
m21 3 103 119 2 nenh w=23.2u l=1.6u
m22 3 58 118 1 penh w=29.6u l=1.6u
m23 110 13 13 1 penh w=29.6u l=1.6u
m24 110 12 9 2 nenh w=23.2u l=1.6u
m25 106 11 12 2 nenh w=23.2u l=1.6u
m26 116 11 13 1 penh w=29.6u l=1.6u
m27 114 117 13 1 penh w=29.6u l=1.6u
m28 113 117 12 2 nenh w=23.2u l=1.6u
m29 112 57 3 2 nenh w=23.2u l=1.6u
m30 111 57 3 1 penh w=29.6u l=1.6u
m31 13 70 110 1 penh w=29.6u l=1.6u
m32 12 70 110 2 nenh w=23.2u l=1.6u
m33 12 115 106 2 nenh w=23.2u l=1.6u
m34 106 115 116 1 penh w=29.6u l=1.6u
m35 8 37 114 1 penh w=29.6u l=1.6u
m36 8 99 113 2 nenh w=23.2u l=1.6u
m37 12 58 112 2 nenh w=23.2u l=1.6u
m38 13 103 111 1 penh w=29.6u l=1.6u
m39 108 110 13 1 penh w=29.6u l=1.6u
m40 107 110 12 2 nenh w=23.2u l=1.6u
m41 12 12 12 2 nenh w=23.2u l=1.6u
m42 13 13 106 1 penh w=29.6u l=1.6u
m43 105 109 8 1 penh w=29.6u l=1.6u
m44 104 109 8 2 nenh w=23.2u l=1.6u
m45 103 58 12 2 nenh w=23.2u l=1.6u
m46 103 58 13 1 penh w=29.6u l=1.6u
m47 16 88 108 1 penh w=29.6u l=1.6u
m48 16 95 107 2 nenh w=23.2u l=1.6u
m49 85 106 12 2 nenh w=23.2u l=1.6u
m50 102 106 13 1 penh w=29.6u l=1.6u
m51 13 99 105 1 penh w=29.6u l=1.6u
m52 12 37 104 2 nenh w=23.2u l=1.6u
m53 98 12 103 2 nenh w=23.2u l=1.6u
m54 98 13 103 1 penh w=29.6u l=1.6u
m55 101 70 16 1 penh w=29.6u l=1.6u
m56 100 70 16 2 nenh w=23.2u l=1.6u
m57 12 17 85 2 nenh w=23.2u l=1.6u
m58 85 17 102 1 penh w=29.6u l=1.6u
m59 99 37 13 1 penh w=29.6u l=1.6u
m60 99 37 12 2 nenh w=23.2u l=1.6u
m61 12 21 98 2 nenh w=23.2u l=1.6u
m62 13 21 98 1 penh w=29.6u l=1.6u
m63 13 95 101 1 penh w=29.6u l=1.6u
m64 12 88 100 2 nenh w=23.2u l=1.6u
m65 12 12 12 2 nenh w=23.2u l=1.6u
m66 13 13 85 1 penh w=29.6u l=1.6u
m67 94 13 99 1 penh w=29.6u l=1.6u
m68 94 12 99 2 nenh w=23.2u l=1.6u
m69 97 98 12 2 nenh w=23.2u l=1.6u
m70 96 98 13 1 penh w=29.6u l=1.6u
m71 95 88 13 1 penh w=29.6u l=1.6u
m72 95 88 12 2 nenh w=23.2u l=1.6u
m73 79 15 12 2 nenh w=23.2u l=1.6u
m74 79 15 13 1 penh w=29.6u l=1.6u
m75 13 79 94 1 penh w=29.6u l=1.6u
m76 12 79 94 2 nenh w=23.2u l=1.6u
m77 4 82 97 2 nenh w=23.2u l=1.6u
m78 4 81 96 1 penh w=29.6u l=1.6u
m79 89 13 95 1 penh w=29.6u l=1.6u
m80 89 12 95 2 nenh w=23.2u l=1.6u
m81 12 12 79 2 nenh w=23.2u l=1.6u
m82 13 13 79 1 penh w=29.6u l=1.6u
m83 93 94 13 1 penh w=29.6u l=1.6u
m84 92 94 12 2 nenh w=23.2u l=1.6u
m85 91 21 4 2 nenh w=23.2u l=1.6u
m86 90 21 4 1 penh w=29.6u l=1.6u
m87 13 5 89 1 penh w=29.6u l=1.6u
m88 12 5 89 2 nenh w=23.2u l=1.6u
m89 70 85 12 2 nenh w=23.2u l=1.6u
m90 70 85 13 1 penh w=29.6u l=1.6u
m91 88 28 93 1 penh w=29.6u l=1.6u
m92 88 76 92 2 nenh w=23.2u l=1.6u
m93 12 81 91 2 nenh w=23.2u l=1.6u
m94 13 82 90 1 penh w=29.6u l=1.6u
m95 87 89 13 1 penh w=29.6u l=1.6u
m96 86 89 12 2 nenh w=23.2u l=1.6u
m97 12 12 70 2 nenh w=23.2u l=1.6u
m98 13 13 70 1 penh w=29.6u l=1.6u
m99 84 79 88 1 penh w=29.6u l=1.6u
m100 83 79 88 2 nenh w=23.2u l=1.6u
m101 82 81 12 2 nenh w=23.2u l=1.6u
m102 82 81 13 1 penh w=29.6u l=1.6u
m103 81 11 87 1 penh w=29.6u l=1.6u
m104 81 72 86 2 nenh w=23.2u l=1.6u
m105 80 85 12 2 nenh w=23.2u l=1.6u
m106 64 85 13 1 penh w=29.6u l=1.6u
m107 13 76 84 1 penh w=29.6u l=1.6u
m108 12 28 83 2 nenh w=23.2u l=1.6u
m109 75 12 82 2 nenh w=23.2u l=1.6u
m110 75 13 82 1 penh w=29.6u l=1.6u
m111 78 5 81 1 penh w=29.6u l=1.6u
m112 77 5 81 2 nenh w=23.2u l=1.6u
m113 64 79 80 2 nenh w=23.2u l=1.6u
m114 13 79 64 1 penh w=29.6u l=1.6u
m115 76 28 13 1 penh w=29.6u l=1.6u
m116 76 28 12 2 nenh w=23.2u l=1.6u
m117 12 28 75 2 nenh w=23.2u l=1.6u
m118 13 28 75 1 penh w=29.6u l=1.6u
m119 13 72 78 1 penh w=29.6u l=1.6u
m120 12 11 77 2 nenh w=23.2u l=1.6u
m121 12 12 64 2 nenh w=23.2u l=1.6u
m122 13 13 13 1 penh w=29.6u l=1.6u
m123 13 13 76 1 penh w=29.6u l=1.6u
m124 12 12 76 2 nenh w=23.2u l=1.6u
m125 74 75 12 2 nenh w=23.2u l=1.6u
m126 73 75 13 1 penh w=29.6u l=1.6u
m127 72 11 13 1 penh w=29.6u l=1.6u
m128 72 11 12 2 nenh w=23.2u l=1.6u
m129 71 15 12 2 nenh w=23.2u l=1.6u
m130 54 15 13 1 penh w=29.6u l=1.6u
m131 68 10 13 1 penh w=29.6u l=1.6u
m132 69 10 12 2 nenh w=23.2u l=1.6u
m133 35 59 74 2 nenh w=23.2u l=1.6u
m134 35 7 73 1 penh w=29.6u l=1.6u
m135 65 13 72 1 penh w=29.6u l=1.6u
m136 65 12 72 2 nenh w=23.2u l=1.6u
m137 54 70 71 2 nenh w=23.2u l=1.6u
m138 13 70 54 1 penh w=29.6u l=1.6u
m139 13 11 68 1 penh w=29.6u l=1.6u
m140 68 11 69 2 nenh w=23.2u l=1.6u
m141 67 28 35 2 nenh w=23.2u l=1.6u
m142 66 28 35 1 penh w=29.6u l=1.6u
m143 13 28 65 1 penh w=29.6u l=1.6u
m144 12 28 65 2 nenh w=23.2u l=1.6u
m145 12 12 54 2 nenh w=23.2u l=1.6u
m146 13 13 13 1 penh w=29.6u l=1.6u
m147 13 13 13 1 penh w=29.6u l=1.6u
m148 12 12 68 2 nenh w=23.2u l=1.6u
m149 12 7 67 2 nenh w=23.2u l=1.6u
m150 13 59 66 1 penh w=29.6u l=1.6u
m151 63 65 13 1 penh w=29.6u l=1.6u
m152 62 65 12 2 nenh w=23.2u l=1.6u
m153 61 64 12 2 nenh w=23.2u l=1.6u
m154 52 64 13 1 penh w=29.6u l=1.6u
m155 60 43 13 1 penh w=29.6u l=1.6u
m156 57 43 12 2 nenh w=23.2u l=1.6u
m157 59 7 12 2 nenh w=23.2u l=1.6u
m158 59 7 13 1 penh w=29.6u l=1.6u
m159 58 14 63 1 penh w=29.6u l=1.6u
m160 58 50 62 2 nenh w=23.2u l=1.6u
m161 52 11 61 2 nenh w=23.2u l=1.6u
m162 13 11 52 1 penh w=29.6u l=1.6u
m163 57 51 60 1 penh w=29.6u l=1.6u
m164 12 51 57 2 nenh w=23.2u l=1.6u
m165 12 12 59 2 nenh w=23.2u l=1.6u
m166 13 13 59 1 penh w=29.6u l=1.6u
m167 56 28 58 1 penh w=29.6u l=1.6u
m168 55 28 58 2 nenh w=23.2u l=1.6u
m169 12 12 52 2 nenh w=23.2u l=1.6u
m170 13 13 13 1 penh w=29.6u l=1.6u
m171 13 13 57 1 penh w=29.6u l=1.6u
m172 12 12 12 2 nenh w=23.2u l=1.6u
m173 42 26 12 2 nenh w=23.2u l=1.6u
m174 42 26 13 1 penh w=29.6u l=1.6u
m175 13 50 56 1 penh w=29.6u l=1.6u
m176 12 14 55 2 nenh w=23.2u l=1.6u
m177 53 54 12 2 nenh w=23.2u l=1.6u
m178 26 54 13 1 penh w=29.6u l=1.6u
m179 51 23 13 1 penh w=29.6u l=1.6u
m180 51 23 12 2 nenh w=23.2u l=1.6u
m181 49 12 42 2 nenh w=23.2u l=1.6u
m182 49 13 42 1 penh w=29.6u l=1.6u
m183 50 14 13 1 penh w=29.6u l=1.6u
m184 50 14 12 2 nenh w=23.2u l=1.6u
m185 26 52 53 2 nenh w=23.2u l=1.6u
m186 13 52 26 1 penh w=29.6u l=1.6u
m187 13 13 51 1 penh w=29.6u l=1.6u
m188 12 12 51 2 nenh w=23.2u l=1.6u
m189 12 42 49 2 nenh w=23.2u l=1.6u
m190 13 42 49 1 penh w=29.6u l=1.6u
m191 45 13 50 1 penh w=29.6u l=1.6u
m192 45 12 50 2 nenh w=23.2u l=1.6u
m193 12 12 26 2 nenh w=23.2u l=1.6u
m194 13 13 13 1 penh w=29.6u l=1.6u
m195 48 28 13 1 penh w=29.6u l=1.6u
m196 43 28 12 2 nenh w=23.2u l=1.6u
m197 47 49 12 2 nenh w=23.2u l=1.6u
m198 46 49 13 1 penh w=29.6u l=1.6u
m199 13 28 45 1 penh w=29.6u l=1.6u
m200 12 28 45 2 nenh w=23.2u l=1.6u
m201 44 24 12 2 nenh w=23.2u l=1.6u
m202 21 24 13 1 penh w=29.6u l=1.6u
m203 43 19 48 1 penh w=29.6u l=1.6u
m204 12 19 43 2 nenh w=23.2u l=1.6u
m205 6 32 47 2 nenh w=23.2u l=1.6u
m206 6 35 46 1 penh w=29.6u l=1.6u
m207 41 45 13 1 penh w=29.6u l=1.6u
m208 40 45 12 2 nenh w=23.2u l=1.6u
m209 21 18 44 2 nenh w=23.2u l=1.6u
m210 13 18 21 1 penh w=29.6u l=1.6u
m211 13 13 43 1 penh w=29.6u l=1.6u
m212 12 12 12 2 nenh w=23.2u l=1.6u
m213 39 42 6 2 nenh w=23.2u l=1.6u
m214 38 42 6 1 penh w=29.6u l=1.6u
m215 37 17 41 1 penh w=29.6u l=1.6u
m216 37 30 40 2 nenh w=23.2u l=1.6u
m217 12 12 21 2 nenh w=23.2u l=1.6u
m218 13 13 13 1 penh w=29.6u l=1.6u
m219 36 26 13 1 penh w=29.6u l=1.6u
m220 31 26 12 2 nenh w=23.2u l=1.6u
m221 12 35 39 2 nenh w=23.2u l=1.6u
m222 13 32 38 1 penh w=29.6u l=1.6u
m223 34 28 37 1 penh w=29.6u l=1.6u
m224 33 28 37 2 nenh w=23.2u l=1.6u
m225 28 11 12 2 nenh w=23.2u l=1.6u
m226 28 11 13 1 penh w=29.6u l=1.6u
m227 31 7 36 1 penh w=29.6u l=1.6u
m228 12 7 31 2 nenh w=23.2u l=1.6u
m229 32 35 12 2 nenh w=23.2u l=1.6u
m230 32 35 13 1 penh w=29.6u l=1.6u
m231 13 30 34 1 penh w=29.6u l=1.6u
m232 12 17 33 2 nenh w=23.2u l=1.6u
m233 12 12 28 2 nenh w=23.2u l=1.6u
m234 13 13 28 1 penh w=29.6u l=1.6u
m235 13 13 31 1 penh w=29.6u l=1.6u
m236 12 12 12 2 nenh w=23.2u l=1.6u
m237 12 12 32 2 nenh w=23.2u l=1.6u
m238 13 13 32 1 penh w=29.6u l=1.6u
m239 30 17 13 1 penh w=29.6u l=1.6u
m240 30 17 12 2 nenh w=23.2u l=1.6u
m241 20 31 12 2 nenh w=23.2u l=1.6u
m242 29 31 13 1 penh w=29.6u l=1.6u
m243 24 7 13 1 penh w=29.6u l=1.6u
m244 27 7 12 2 nenh w=23.2u l=1.6u
m245 25 21 12 2 nenh w=23.2u l=1.6u
m246 23 21 13 1 penh w=29.6u l=1.6u
m247 13 13 30 1 penh w=29.6u l=1.6u
m248 12 12 30 2 nenh w=23.2u l=1.6u
m249 12 28 20 2 nenh w=23.2u l=1.6u
m250 20 28 29 1 penh w=29.6u l=1.6u
m251 13 26 24 1 penh w=29.6u l=1.6u
m252 24 26 27 2 nenh w=23.2u l=1.6u
m253 23 5 25 2 nenh w=23.2u l=1.6u
m254 13 5 23 1 penh w=29.6u l=1.6u
m255 22 5 13 1 penh w=29.6u l=1.6u
m256 19 5 12 2 nenh w=23.2u l=1.6u
m257 12 12 23 2 nenh w=23.2u l=1.6u
m258 13 13 13 1 penh w=29.6u l=1.6u
m259 19 21 22 1 penh w=29.6u l=1.6u
m260 12 21 19 2 nenh w=23.2u l=1.6u
m261 18 20 12 2 nenh w=23.2u l=1.6u
m262 18 20 13 1 penh w=29.6u l=1.6u
*
* namelist Posnew
*
*   1 pbulk        2 nbulk        3 position_new_5_0_5
*   4 position_new_5_0_4          5 position_old_5_0_4
*   6 position_new_5_0_3          7 position_old_5_0_3
*   8 position_new_5_0_1          9 position_new_5_0_0
*  10 position_old_5_0_0         11 button      12 vss         12 n9
*  13 vdd         13 n8          14 position_old_5_0_5
*  15 position_old_5_0_2         16 position_new_5_0_2
*  17 position_old_5_0_1         18 r61_n3      19 r61_n13     20 r61_n16
*  21 r61_n12     22 77          23 r61_n11     24 r61_n15     25 76
*  26 r61_n18     27 75          28 n11         29 74          30 73
*  31 r61_n17     32 72          33 71          34 70          35 r61_n19
*  36 69          37 r61_n27     38 68          39 67          40 66
*  41 65          42 r61_n4      43 r61_n10     44 64          45 63
*  46 62          47 61          48 60          49 59          50 58
*  51 r61_n2      52 r61_n21     53 57          54 r61_n20     55 56
*  56 55          57 r61_n8      58 r61_n9      59 54          60 53
*  61 52          62 51          63 50          64 r61_n22     65 49
*  66 48          67 47          68 r61_n28     69 46          70 r61_n6
*  71 45          72 44          73 43          74 42          75 41
*  76 40          77 39          78 38          79 r61_n5      80 37
*  81 r61_n14     82 36          83 35          84 34          85 r61_n23
*  86 33          87 32          88 r61_n24     89 31          90 30
*  91 29          92 28          93 27          94 26          95 25
*  96 24          97 23          98 22          99 21         100 20
* 101 19         102 18         103 17         104 16         105 15
* 106 r61_n25    107 14         108 13         109 r61_n7     110 12
* 111 11         112 10         113 9          114 8          115 r61_n26
* 116 7          117 6          118 5          119 4          120 3
* 121 2          122 1
*
.ends Posnew

*.subckt posnew_tmp 1 2 3 4 5 6 7 8 9 10 11 12 13 14 15 16
*
*   1 pbulk        2 nbulk        3 position_old_5_0_4
*   4 position_old_5_0_3          5 position_old_5_0_2
*   6 position_old_5_0_1          7 position_old_5_0_0          8 button
*   9 position_new_5_0_5         10 position_new_5_0_4
*  11 position_new_5_0_3         12 position_new_5_0_2
*  13 position_new_5_0_1         14 position_new_5_0_0         15 vss
*  16 vdd
*
x1 1 2 9 10 3 11 4 13 14 7 8 15 16 18 5 12 6 Posnew
r1 18 16 5
r2 17 16 5
*
* namelist posnew_tmp
*
*   1 pbulk        2 nbulk        3 position_old_5_0_4
*   4 position_old_5_0_3          5 position_old_5_0_2
*   6 position_old_5_0_1          7 position_old_5_0_0          8 button
*   9 position_new_5_0_5         10 position_new_5_0_4
*  11 position_new_5_0_3         12 position_new_5_0_2
*  13 position_new_5_0_1         14 position_new_5_0_0         15 vss
*  16 vdd         17 node_out    18 node_in
*
*.ends posnew_tmp
*-----------------------begin spicemod----
.model nenh nmos level=2
+ ld=0.325u tox=250e-10 nsub=2e16
+ vto=0.7 uo=510 uexp=0.22
+ ucrit=24.3k delta=0.4 xj=0.4u
+ vmax=54k neff=4.0 rsh=0
+ nfs=0e11 js=2u cj=130u
+ cjsw=620p mj=0.53 mjsw=0.53
+ pb=0.68v cgdo=320p cgso=320p
.model penh pmos level=2
+ ld=0.3u tox=250e-10 nsub=5e16
+ vto=-1.1 uo=210 uexp=0.33
+ ucrit=51k delta=0.4 xj=0.5u
+ vmax=47k neff=0.88 rsh=0
+ nfs=0e11 js=10u cj=490u
+ cjsw=590p mj=0.46 mjsw=0.46
+ pb=0.78v cgdo=320p cgso=320p
*-----------------------end spicemod------

vnbulk 2 0 0
rnbulk 2 0 1e+08
vpbulk 1 0 5
rpbulk 1 0 1e+08

